new file C
trying the fetch command.
new line.
more branch commands.
